LAMMPS (30 Jun 2020)
#######################################
#	Cubic Silicon Carbide (3C-SiC)
# GCMC Different Chemical Potential Tests
#	Using Tersoff Potential
#######################################

variable Exp string "ExpSurfCterm100"
shell mkdir ExpSurfCterm100
shell mkdir ExpSurfCterm100/dumps
shell mkdir ExpSurfCterm100/logs

shell cd ExpSurfCterm100

# i think the total excess chemical potential at equilibrium for a surface is -10.5
# i think tht etotal excess chemical potential at eq for bulk is -20.5
# -8.25 -9.25 -10.25 -11.25 -12.25
# -3.25 -4.25 -5.25 -6.25 -7.25 -8.25
# -3.25 -4.25 -5.25 -6.25 -7.25 -8.25

variable si_mu_ex index -5.00 -5.05 -5.10 -5.15 -5.20 -5.25 -5.30 -5.35 -5.40 -5.45 -5.50
variable c_mu_ex index -5.00 -5.05 -5.10 -5.15 -5.20 -5.25 -5.30 -5.35 -5.40 -5.45 -5.50

include		../100.surf.sic
#######################################
#	Cubic Silicon Carbide (3C-SiC)
# 100 oriented surface input
#######################################

units		metal
atom_style	atomic
dimension	3
boundary	p p f

variable			massSi equal 28.086000
variable			massC equal 12.011150
variable			lat_const equal 4.3596
variable			lbox equal 4.0
variable			lzbox equal 2.0
variable			myTemp equal 500

# Lattice Constants a = 4.3596 A c = 4.3596 A for 100 3C-SiC
lattice custom 4.3596 a1 1.0 0.0 0.0 a2 0.0 1.0 0.0 a3 0.0 0.0 1.0 basis 0.0 0.0 0.0 basis 0.5 0.0 0.5 basis 0.0 0.5 0.5 basis 0.5 0.5 0.0 basis 0.25 0.25 0.25  basis 0.75 0.25 0.75  basis 0.25 0.75 0.75 basis 0.75 0.75 0.25 orient x 1 0 0	orient y 0 1 0 orient z 0 0 1
Lattice spacing in x,y,z = 4.3596000 4.3596000 4.3596000

region simBox block 0 4 0 4 $(-v_lzbox-1) $(v_lzbox+1) units lattice
region simBox block 0 4 0 4 -3 $(v_lzbox+1) units lattice
region simBox block 0 4 0 4 -3 3 units lattice
# have four species; the two extra ones are for the frozen atoms not be MD's or GCMC'd
create_box 4 simBox
Created orthogonal box = (0.0000000 0.0000000 -13.078800) to (17.438400 17.438400 13.078800)

region dynamic_atomBox block EDGE EDGE EDGE EDGE -2 0 units lattice
region frozen_atomBox block EDGE EDGE EDGE EDGE EDGE -2 units lattice

mass 1  28.086
mass 2  12.01115

mass 3 28.086
mass 4 12.01115

create_atoms 2 region dynamic_atomBox basis 1 2 basis 2 2 basis 3 2 basis 4 2 basis 5 1 basis 6 1  basis 7 1  basis 8 1
Created 288 atoms
create_atoms 4 region frozen_atomBox basis 1 4 basis 2 4 basis 3 4 basis 4 4 basis 5 3 basis 6 3  basis 7 3  basis 8 3
Created 160 atoms

group				groupSi type 1
128 atoms in group groupSi
group				groupC type 2
160 atoms in group groupC
group				mdatoms union groupC groupSi
288 atoms in group mdatoms

group				frozenSi type 3
64 atoms in group frozenSi
group				frozenC type 4
96 atoms in group frozenC
group				frozen_atoms union frozenSi frozenC
160 atoms in group frozen_atoms

pair_style 		tersoff
pair_coeff		 * * ../SiC.tersoff Si C Si C
Reading tersoff potential file ../SiC.tersoff with DATE: 2011-04-26
neighbor			5.0 bin
neigh_modify	delay 0 every 1 check yes

delete_atoms overlap 0.5 mdatoms frozen_atoms
  update every 1 steps, delay 0 steps, check yes
Deleted 32 atoms, new total = 416

velocity			mdatoms create 500 12345
timestep			0.0001

compute			mdtemp mdatoms temp
compute_modify	mdtemp dynamic/dof yes

fix					mynvt mdatoms nvt temp 500 500 $(100.0*dt) drag 0.0
fix					mynvt mdatoms nvt temp 500 500 0.010000000000000000208 drag 0.0
fix_modify		mynvt temp mdtemp

#fix_modify		myrescale temp mdtemp
#fix					1 all nve

thermo			100
thermo_modify temp mdtemp
run					10000
  update every 1 steps, delay 0 steps, check yes
Step Temp E_pair E_mol TotEng Press
0          500   -2401.4328            0   -2384.9521   -35077.275
Averages over the last 51 of 101 rows, steps 5000 to 10000:
Temp E_pair E_mol TotEng Press
502.42 -2401.7 0 -2385.14 -6370.43
Loop time of 29.4143 on 1 procs for 10000 steps with 416 atoms

write_dump		all atom dumps/struct.init
clear

label		a
label		b

print			"Excess muSi $(v_si_mu_ex:%2.2f) and muC $(v_c_mu_ex:%2.2f)"
Excess muSi -5.00 and muC -5.00
include		../in.gcmc.sic
#######################################
#	Cubic Silicon Carbide (3C-SiC)
# Fix GCMC Test
#	Using Tersoff Potential
#######################################

units		metal
atom_style	atomic
dimension	3
boundary	p p f

# these are index variables in case they are to be iterated over or set from the commandline
variable			si_mu_ex index 5.0
variable			c_mu_ex index 5.5

variable			massSi equal 28.086000
variable			massC equal 12.011150
variable			lat_const equal 4.3596

variable			myTemp equal 500
variable			pressSi equal 0.1
variable 			pressC equal 0.1
variable			disp equal 0.5
variable			lbox equal 4.0
variable			lzbox equal 2.0

variable			h equal 4.135667e-3				# in eV*ps
variable			kT equal "8.617333e-5*v_myTemp"
variable			broglieSi equal "sqrt( v_h^2 /(2*PI*v_massSi*v_kT) )"
variable			broglieC equal "sqrt( v_h^2 /(2*PI*v_massC*v_kT) )"
variable			si_mu_id equal "v_kT*ln( v_pressSi*v_broglieSi^3/v_kT )"
variable			c_mu_id equal "v_kT*ln( v_pressC*v_broglieC^3/v_kT )"

variable			si_mu equal $(v_si_mu_id + v_si_mu_ex)
variable			si_mu equal -5.8042243733490730406
variable			c_mu equal $(v_c_mu_id + v_c_mu_ex)
variable			c_mu equal -5.7493253367134027343

# Lattice Constants a = 4.3596 A c = 4.3596 A for 100 3C-SiC
lattice custom 4.3596 a1 1.0 0.0 0.0 a2 0.0 1.0 0.0 a3 0.0 0.0 1.0 basis 0.0 0.0 0.0 basis 0.5 0.0 0.5 basis 0.0 0.5 0.5 basis 0.5 0.5 0.0 basis 0.25 0.25 0.25  basis 0.75 0.25 0.75  basis 0.25 0.75 0.75 basis 0.75 0.75 0.25 orient x 1 0 0	orient y 0 1 0 orient z 0 0 1
Lattice spacing in x,y,z = 4.3596000 4.3596000 4.3596000

# make the z direction twice as long
region whole block 0 4 0 4 $(-v_lzbox-1) $(v_lzbox+1)  units lattice
region whole block 0 4 0 4 -3 $(v_lzbox+1)  units lattice
region whole block 0 4 0 4 -3 3  units lattice
create_box 4 whole
Created orthogonal box = (0.0000000 0.0000000 -13.078800) to (17.438400 17.438400 13.078800)

mass 1  28.086
mass 2  12.01115

mass 3 28.086
mass 4 12.01115

read_dump		dumps/struct.init 10000 x y z add yes
  orthogonal box = (0.0000000 0.0000000 -13.078800) to (17.438400 17.438400 13.078800)
  0 atoms before read
  416 atoms in snapshot
  0 atoms purged
  0 atoms replaced
  0 atoms trimmed
  416 atoms added
  416 atoms after read

group				groupSi type 1
128 atoms in group groupSi
group				groupC type 2
128 atoms in group groupC
group				mdatoms union groupC groupSi
256 atoms in group mdatoms

group				frozenSi type 3
64 atoms in group frozenSi
group				frozenC type 4
96 atoms in group frozenC
group				frozen_atoms union frozenSi frozenC
160 atoms in group frozen_atoms

variable			nSi equal count(groupSi)
variable			nC equal count(groupC)

# ---------- Define Interatomic Potential ---------------------
pair_style 		tersoff
pair_coeff		 * * ../SiC.tersoff Si C Si C
Reading tersoff potential file ../SiC.tersoff with DATE: 2011-04-26
neighbor			5.0 bin
neigh_modify	delay 0 every 1 check yes

# gaussian initializiaton with velocity Anderson rescaling to get the exact right temperaure with compute
velocity			mdatoms create 500 12345

dump				mydump all xyz 10 dumps/muSi$(v_si_mu:%2.2f)_muC$(v_c_mu:%2.2f).xyz
dump				mydump all xyz 10 dumps/muSi-5.80_muC$(v_c_mu:%2.2f).xyz
dump				mydump all xyz 10 dumps/muSi-5.80_muC-5.75.xyz
log					logs/muSi$(v_si_mu:%2.2f)_muC$(v_c_mu:%2.2f).lammps
log					logs/muSi-5.80_muC$(v_c_mu:%2.2f).lammps
log					logs/muSi-5.80_muC-5.75.lammps
